---- qbsp / ericw-tools v0.18.1 ----
Input file: dreadspire.map
Output file: dreadspire.bsp

---- LoadMapFile ----
*** WARNING 06: No info_player_deathmatch entities in level
         1282 faces
          169 brushes
           42 entities
            5 unique texnames
           20 texinfo

Opened WAD: C:/Users/maxic/Documents/GitHub/The-Dread-Spire--A-Quake-Multiplayer-Map/wads/prototype_1_2.wad
Processing hull 0...
---- Brush_LoadEntity ----
          169 brushes
          366 planes
---- CSGFaces ----
         1282 brushfaces
         1884 csgfaces
         1665 mergedfaces
---- SolidBSP ----
         1601 split nodes
          429 solid leafs
         1173 empty leafs
            0 water leafs
            0 detail leafs
            0 detail illusionary leafs
            0 detail fence leafs
            0 illusionary visblocker leafs
         4702 leaffaces
         3582 nodefaces
---- Portalize ----
         1173 vis leafs
         1173 vis clusters
         3339 vis portals
---- FillOutside ----
*** WARNING 10: Reached occupant at (1048 -408 968), no filling performed.
Leak file written to dreadspire.pts
---- MakeFaceEdges ----
---- GrowRegions ----
Processing hull 1...
*** WARNING 10: Reached occupant at (1048 -408 968), no filling performed.
Processing hull 2...
*** WARNING 10: Reached occupant at (1048 -408 968), no filling performed.
---- WriteBSPFile ----
Wrote dreadspire.bsp
          831 planes            16620
         4315 vertexes          51780
         1601 nodes             38424
           19 texinfo             760
         3582 faces             71640
         3030 clipnodes         24240
         1174 leafs             32872
         4702 marksurfaces       9404
        13706 surfedges         54824
         9287 edges             37148
            5 textures          60064
              lightdata             0
              visdata               0
              entdata            2513

0.272 seconds elapsed
Peak memory usage: 17125840 (16.3M)
