---- qbsp / ericw-tools v0.18.1 ----
Input file: dreadspire.map
Output file: dreadspire.bsp

---- LoadMapFile ----
*** WARNING 05: No info_player_start entity in level
         3145 faces
          423 brushes
           93 entities
           21 unique texnames
          511 texinfo

Opened WAD: C:/Users/maxic/Documents/GitHub/The-Dread-Spire--A-Quake-Multiplayer-Map/wads/prototype_1_2.wad
Opened WAD: C:/Users/maxic/Documents/GitHub/The-Dread-Spire--A-Quake-Multiplayer-Map/wads/id1.wad
Processing hull 0...
---- Brush_LoadEntity ----
          267 brushes
          678 planes
---- CSGFaces ----
         2021 brushfaces
         2651 csgfaces
         2546 mergedfaces
---- SolidBSP ----
         2626 split nodes
          870 solid leafs
         1749 empty leafs
            8 water leafs
            0 detail leafs
            0 detail illusionary leafs
            0 detail fence leafs
            0 illusionary visblocker leafs
         6592 leaffaces
         5276 nodefaces
---- Portalize ----
         1757 vis leafs
         1757 vis clusters
         5296 vis portals
---- FillOutside ----
          476 outleafs
---- MergeAll ----
         2560 mergefaces
---- SolidBSP ----
         1152 split nodes
          339 solid leafs
          810 empty leafs
            4 water leafs
            0 detail leafs
            0 detail illusionary leafs
            0 detail fence leafs
            0 illusionary visblocker leafs
         4870 leaffaces
         3270 nodefaces
---- Portalize ----
          814 vis leafs
          814 vis clusters
         2249 vis portals
---- Tjunc ----
         3007 world edges
        11335 edge points
         3127 edges added by tjunctions
            0 faces added by tjunctions
---- MakeFaceEdges ----
---- GrowRegions ----
Processing hull 1...
Processing hull 2...
*** WARNING 16: Texture __TB_empty not found
---- WriteBSPFile ----
Wrote dreadspire.bsp
         1553 planes            31060
         4835 vertexes          58020
         1524 nodes             36576
          347 texinfo           13880
         3582 faces             71640
         3771 clipnodes         30168
         1171 leafs             32788
         5210 marksurfaces      10420
        16962 surfedges         67848
         8482 edges             33928
           21 textures         213048
              lightdata             0
              visdata               0
              entdata            5871

0.811 seconds elapsed
Peak memory usage: 25228324 (24.1M)
