---- qbsp / ericw-tools v0.18.1 ----
Input file: dreadspire.map
Output file: dreadspire.bsp

---- LoadMapFile ----
*** WARNING 05: No info_player_start entity in level
         3121 faces
          419 brushes
           93 entities
           20 unique texnames
          500 texinfo

Opened WAD: C:/Users/maxic/Documents/GitHub/The-Dread-Spire--A-Quake-Multiplayer-Map/wads/prototype_1_2.wad
Opened WAD: C:/Users/maxic/Documents/GitHub/The-Dread-Spire--A-Quake-Multiplayer-Map/wads/id1.wad
Processing hull 0...
---- Brush_LoadEntity ----
          263 brushes
          674 planes
---- CSGFaces ----
         1997 brushfaces
         2623 csgfaces
         2533 mergedfaces
---- SolidBSP ----
         2542 split nodes
          834 solid leafs
         1701 empty leafs
            8 water leafs
            0 detail leafs
            0 detail illusionary leafs
            0 detail fence leafs
            0 illusionary visblocker leafs
         6512 leaffaces
         5188 nodefaces
---- Portalize ----
         1709 vis leafs
         1709 vis clusters
         5137 vis portals
---- FillOutside ----
          455 outleafs
---- MergeAll ----
         2545 mergefaces
---- SolidBSP ----
         1152 split nodes
          339 solid leafs
          810 empty leafs
            4 water leafs
            0 detail leafs
            0 detail illusionary leafs
            0 detail fence leafs
            0 illusionary visblocker leafs
         4834 leaffaces
         3254 nodefaces
---- Portalize ----
          814 vis leafs
          814 vis clusters
         2269 vis portals
---- Tjunc ----
         2982 world edges
        11251 edge points
         3101 edges added by tjunctions
            0 faces added by tjunctions
---- MakeFaceEdges ----
---- GrowRegions ----
Processing hull 1...
Processing hull 2...
*** WARNING 16: Texture __TB_empty not found
---- WriteBSPFile ----
Wrote dreadspire.bsp
         1549 planes            30980
         4805 vertexes          57660
         1524 nodes             36576
          341 texinfo           13640
         3566 faces             71320
         3710 clipnodes         29680
         1171 leafs             32788
         5174 marksurfaces      10348
        16870 surfedges         67480
         8436 edges             33744
           20 textures         191244
              lightdata             0
              visdata               0
              entdata            5871

0.709 seconds elapsed
Peak memory usage: 24931312 (23.8M)
