---- qbsp / ericw-tools v0.18.1 ----
Input file: dreadspire.map
Output file: dreadspire.bsp

---- LoadMapFile ----
*** WARNING 05: No info_player_start entity in level
         3125 faces
          419 brushes
          121 entities
           27 unique texnames
          549 texinfo

Opened WAD: C:/Users/maxic/Documents/GitHub/The-Dread-Spire--A-Quake-Multiplayer-Map/wads/prototype_1_2.wad
Opened WAD: C:/Users/maxic/Documents/GitHub/The-Dread-Spire--A-Quake-Multiplayer-Map/wads/id1.wad
Processing hull 0...
---- Brush_LoadEntity ----
          247 brushes
           20 detail
          674 planes
---- CSGFaces ----
         2021 brushfaces
         2755 csgfaces
         3037 mergedfaces
---- SolidBSP ----
         2622 split nodes
          788 solid leafs
         1756 empty leafs
            8 water leafs
           71 detail leafs
            0 detail illusionary leafs
            0 detail fence leafs
            0 illusionary visblocker leafs
         7286 leaffaces
         6056 nodefaces
---- Portalize ----
         1835 vis leafs
         1835 vis clusters
         5422 vis portals
---- FillOutside ----
          479 outleafs
---- MergeAll ----
         3054 mergefaces
---- SolidBSP ----
         1149 split nodes
          308 solid leafs
          812 empty leafs
            4 water leafs
           26 detail leafs
            0 detail illusionary leafs
            0 detail fence leafs
            0 illusionary visblocker leafs
         5499 leaffaces
         3798 nodefaces
---- Portalize ----
          816 vis leafs
          398 vis clusters
         1213 vis portals
---- Tjunc ----
         3013 world edges
        11439 edge points
         3900 edges added by tjunctions
            0 faces added by tjunctions
---- MakeFaceEdges ----
---- GrowRegions ----
Processing hull 1...
Processing hull 2...
*** WARNING 16: Texture __TB_empty not found
---- WriteBSPFile ----
Wrote dreadspire.bsp
         1549 planes            30980
         4901 vertexes          58812
         1521 nodes             36504
          383 texinfo           15320
         3614 faces             72280
         3860 clipnodes         30880
         1173 leafs             32844
         5343 marksurfaces      10686
        17158 surfedges         68632
         8580 edges             34320
           27 textures         213312
              lightdata             0
              visdata               0
              entdata            6275

0.791 seconds elapsed
Peak memory usage: 26060422 (24.9M)
