---- qbsp / ericw-tools v0.18.1 ----
Input file: dreadspire.map
Output file: dreadspire.bsp

---- LoadMapFile ----
*** WARNING 05: No info_player_start entity in level
         2857 faces
          391 brushes
           92 entities
           15 unique texnames
          407 texinfo

Opened WAD: C:/Users/maxic/Documents/GitHub/The-Dread-Spire--A-Quake-Multiplayer-Map/wads/prototype_1_2.wad
Opened WAD: C:/Users/maxic/Documents/GitHub/The-Dread-Spire--A-Quake-Multiplayer-Map/wads/id1.wad
Processing hull 0...
---- Brush_LoadEntity ----
          243 brushes
          651 planes
---- CSGFaces ----
         1781 brushfaces
         2362 csgfaces
         2243 mergedfaces
---- SolidBSP ----
         2331 split nodes
          700 solid leafs
         1624 empty leafs
            8 water leafs
            0 detail leafs
            0 detail illusionary leafs
            0 detail fence leafs
            0 illusionary visblocker leafs
         6429 leaffaces
         4926 nodefaces
---- Portalize ----
         1632 vis leafs
         1632 vis clusters
         4802 vis portals
---- FillOutside ----
          394 outleafs
---- MergeAll ----
         2258 mergefaces
---- SolidBSP ----
          994 split nodes
          316 solid leafs
          675 empty leafs
            4 water leafs
            0 detail leafs
            0 detail illusionary leafs
            0 detail fence leafs
            0 illusionary visblocker leafs
         4764 leaffaces
         2948 nodefaces
---- Portalize ----
          679 vis leafs
          679 vis clusters
         1695 vis portals
---- Tjunc ----
         2737 world edges
        10101 edge points
         2957 edges added by tjunctions
            0 faces added by tjunctions
---- MakeFaceEdges ----
---- GrowRegions ----
Processing hull 1...
Processing hull 2...
*** WARNING 16: Texture __TB_empty not found
---- WriteBSPFile ----
Wrote dreadspire.bsp
         1493 planes            29860
         4452 vertexes          53424
         1342 nodes             32208
          258 texinfo           10320
         3260 faces             65200
         3425 clipnodes         27400
         1012 leafs             28336
         5104 marksurfaces      10208
        15556 surfedges         62224
         7779 edges             31116
           15 textures         163824
              lightdata             0
              visdata               0
              entdata            5711

0.659 seconds elapsed
Peak memory usage: 22963304 (21.9M)
