---- qbsp / ericw-tools v0.18.1 ----
Input file: dreadspire.map
Output file: dreadspire.bsp

---- LoadMapFile ----
*** WARNING 05: No info_player_start entity in level
         1988 faces
          288 brushes
           75 entities
            6 unique texnames
          115 texinfo

Opened WAD: C:/Users/maxic/Documents/GitHub/The-Dread-Spire--A-Quake-Multiplayer-Map/wads/prototype_1_2.wad
Processing hull 0...
---- Brush_LoadEntity ----
          172 brushes
          482 planes
---- CSGFaces ----
         1292 brushfaces
         1892 csgfaces
         1673 mergedfaces
---- SolidBSP ----
         1685 split nodes
          419 solid leafs
         1267 empty leafs
            0 water leafs
            0 detail leafs
            0 detail illusionary leafs
            0 detail fence leafs
            0 illusionary visblocker leafs
         4781 leaffaces
         3646 nodefaces
---- Portalize ----
         1267 vis leafs
         1267 vis clusters
         3828 vis portals
---- FillOutside ----
*** WARNING 10: Reached occupant at (1048 -408 968), no filling performed.
Leak file written to dreadspire.pts
---- MakeFaceEdges ----
---- GrowRegions ----
Processing hull 1...
*** WARNING 10: Reached occupant at (1048 -408 968), no filling performed.
Processing hull 2...
*** WARNING 10: Reached occupant at (1048 -408 968), no filling performed.
---- WriteBSPFile ----
Wrote dreadspire.bsp
          944 planes            18880
         4406 vertexes          52872
         1709 nodes             41016
           40 texinfo            1600
         3670 faces             73400
         3955 clipnodes         31640
         1292 leafs             36176
         4805 marksurfaces       9610
        14043 surfedges         56172
         9418 edges             37672
            6 textures          65548
              lightdata             0
              visdata               0
              entdata            4807

0.409 seconds elapsed
Peak memory usage: 20763062 (19.8M)
