---- qbsp / ericw-tools v0.18.1 ----
Input file: dreadspire.map
Output file: dreadspire.bsp

---- LoadMapFile ----
*** WARNING 05: No info_player_start entity in level
         3125 faces
          419 brushes
          119 entities
           27 unique texnames
          549 texinfo

Opened WAD: C:/Users/maxic/Documents/GitHub/The-Dread-Spire--A-Quake-Multiplayer-Map/wads/prototype_1_2.wad
Opened WAD: C:/Users/maxic/Documents/GitHub/The-Dread-Spire--A-Quake-Multiplayer-Map/wads/id1.wad
Processing hull 0...
---- Brush_LoadEntity ----
          247 brushes
           20 detail
          674 planes
---- CSGFaces ----
         2021 brushfaces
         2721 csgfaces
         3035 mergedfaces
---- SolidBSP ----
         2626 split nodes
          790 solid leafs
         1758 empty leafs
            8 water leafs
           71 detail leafs
            0 detail illusionary leafs
            0 detail fence leafs
            0 illusionary visblocker leafs
         7274 leaffaces
         6045 nodefaces
---- Portalize ----
         1837 vis leafs
         1837 vis clusters
         5434 vis portals
---- FillOutside ----
          481 outleafs
---- MergeAll ----
         3058 mergefaces
---- SolidBSP ----
         1147 split nodes
          307 solid leafs
          811 empty leafs
            4 water leafs
           26 detail leafs
            0 detail illusionary leafs
            0 detail fence leafs
            0 illusionary visblocker leafs
         5465 leaffaces
         3793 nodefaces
---- Portalize ----
          815 vis leafs
          397 vis clusters
         1214 vis portals
---- Tjunc ----
         3012 world edges
        11430 edge points
         3901 edges added by tjunctions
            0 faces added by tjunctions
---- MakeFaceEdges ----
---- GrowRegions ----
Processing hull 1...
Processing hull 2...
*** WARNING 16: Texture __TB_empty not found
---- WriteBSPFile ----
Wrote dreadspire.bsp
         1549 planes            30980
         4897 vertexes          58764
         1519 nodes             36456
          383 texinfo           15320
         3609 faces             72180
         3865 clipnodes         30920
         1172 leafs             32816
         5309 marksurfaces      10618
        17140 surfedges         68560
         8571 edges             34284
           27 textures         213312
              lightdata             0
              visdata               0
              entdata            6231

0.782 seconds elapsed
Peak memory usage: 26023934 (24.8M)
