---- qbsp / ericw-tools v0.18.1 ----
Input file: dreadspire.map
Output file: dreadspire.bsp

---- LoadMapFile ----
*** WARNING 05: No info_player_start entity in level
         2496 faces
          328 brushes
           85 entities
            8 unique texnames
          215 texinfo

Opened WAD: C:/Users/maxic/Documents/GitHub/The-Dread-Spire--A-Quake-Multiplayer-Map/wads/prototype_1_2.wad
Processing hull 0...
---- Brush_LoadEntity ----
          184 brushes
          599 planes
---- CSGFaces ----
         1444 brushfaces
         2265 csgfaces
         2022 mergedfaces
---- SolidBSP ----
         2071 split nodes
          539 solid leafs
         1533 empty leafs
            0 water leafs
            0 detail leafs
            0 detail illusionary leafs
            0 detail fence leafs
            0 illusionary visblocker leafs
         5894 leaffaces
         4501 nodefaces
---- Portalize ----
         1533 vis leafs
         1533 vis clusters
         4485 vis portals
---- FillOutside ----
*** WARNING 10: Reached occupant at (1048 -408 968), no filling performed.
Leak file written to dreadspire.pts
---- MakeFaceEdges ----
---- GrowRegions ----
Processing hull 1...
*** WARNING 10: Reached occupant at (1048 -408 968), no filling performed.
Processing hull 2...
*** WARNING 10: Reached occupant at (1048 -408 968), no filling performed.
---- WriteBSPFile ----
Wrote dreadspire.bsp
         1432 planes            28640
         5920 vertexes          71040
         2395 nodes             57480
          119 texinfo            4760
         4813 faces             96260
         4597 clipnodes         36776
         1842 leafs             51576
         6234 marksurfaces      12468
        18791 surfedges         75164
        12387 edges             49548
            8 textures          92836
              lightdata             0
              visdata               0
              entdata            5246

0.496 seconds elapsed
Peak memory usage: 24614908 (23.5M)
