---- qbsp / ericw-tools v0.18.1 ----
Input file: dreadspire.map
Output file: dreadspire.bsp

---- LoadMapFile ----
*** WARNING 05: No info_player_start entity in level
         2881 faces
          395 brushes
           96 entities
           18 unique texnames
          450 texinfo

Opened WAD: C:/Users/maxic/Documents/GitHub/The-Dread-Spire--A-Quake-Multiplayer-Map/wads/prototype_1_2.wad
Opened WAD: C:/Users/maxic/Documents/GitHub/The-Dread-Spire--A-Quake-Multiplayer-Map/wads/id1.wad
Processing hull 0...
---- Brush_LoadEntity ----
          243 brushes
          651 planes
---- CSGFaces ----
         1781 brushfaces
         2358 csgfaces
         2243 mergedfaces
---- SolidBSP ----
         2331 split nodes
          700 solid leafs
         1624 empty leafs
            8 water leafs
            0 detail leafs
            0 detail illusionary leafs
            0 detail fence leafs
            0 illusionary visblocker leafs
         6428 leaffaces
         4926 nodefaces
---- Portalize ----
         1632 vis leafs
         1632 vis clusters
         4802 vis portals
---- FillOutside ----
          394 outleafs
---- MergeAll ----
         2262 mergefaces
---- SolidBSP ----
          994 split nodes
          316 solid leafs
          675 empty leafs
            4 water leafs
            0 detail leafs
            0 detail illusionary leafs
            0 detail fence leafs
            0 illusionary visblocker leafs
         4772 leaffaces
         2952 nodefaces
---- Portalize ----
          679 vis leafs
          679 vis clusters
         1696 vis portals
---- Tjunc ----
         2736 world edges
        10112 edge points
         2959 edges added by tjunctions
            0 faces added by tjunctions
---- MakeFaceEdges ----
---- GrowRegions ----
Processing hull 1...
Processing hull 2...
*** WARNING 16: Texture __TB_empty not found
---- WriteBSPFile ----
Wrote dreadspire.bsp
         1497 planes            29940
         4457 vertexes          53484
         1366 nodes             32784
          287 texinfo           11480
         3264 faces             65280
         3472 clipnodes         27776
         1036 leafs             29008
         5112 marksurfaces      10224
        15574 surfedges         62296
         7788 edges             31152
           18 textures         180276
              lightdata             0
              visdata               0
              entdata            5879

0.685 seconds elapsed
Peak memory usage: 23023984 (22.0M)
