---- qbsp / ericw-tools v0.18.1 ----
Input file: dreadspire.map
Output file: dreadspire.bsp

---- LoadMapFile ----
*** WARNING 05: No info_player_start entity in level
         1356 faces
          184 brushes
           51 entities
            5 unique texnames
           30 texinfo

Opened WAD: C:/Users/maxic/Documents/GitHub/The-Dread-Spire--A-Quake-Multiplayer-Map/wads/prototype_1_2.wad
Processing hull 0...
---- Brush_LoadEntity ----
          184 brushes
          390 planes
---- CSGFaces ----
         1356 brushfaces
         1948 csgfaces
         1729 mergedfaces
---- SolidBSP ----
         1862 split nodes
          469 solid leafs
         1394 empty leafs
            0 water leafs
            0 detail leafs
            0 detail illusionary leafs
            0 detail fence leafs
            0 illusionary visblocker leafs
         5048 leaffaces
         3881 nodefaces
---- Portalize ----
         1394 vis leafs
         1394 vis clusters
         4239 vis portals
---- FillOutside ----
*** WARNING 10: Reached occupant at (1048 -408 968), no filling performed.
Leak file written to dreadspire.pts
---- MakeFaceEdges ----
---- GrowRegions ----
Processing hull 1...
*** WARNING 10: Reached occupant at (1048 -408 968), no filling performed.
Processing hull 2...
*** WARNING 10: Reached occupant at (1048 -408 968), no filling performed.
---- WriteBSPFile ----
Wrote dreadspire.bsp
          899 planes            17980
         4649 vertexes          55788
         1862 nodes             44688
           29 texinfo            1160
         3881 faces             77620
         3685 clipnodes         29480
         1395 leafs             39060
         5048 marksurfaces      10096
        14867 surfedges         59468
         9965 edges             39860
            5 textures          60064
              lightdata             0
              visdata               0
              entdata            3214

0.295 seconds elapsed
Peak memory usage: 19417904 (18.5M)
