---- qbsp / ericw-tools v0.18.1 ----
Input file: dreadspire.map
Output file: dreadspire.bsp

---- LoadMapFile ----
*** WARNING 05: No info_player_start entity in level
         2857 faces
          391 brushes
           92 entities
           13 unique texnames
          324 texinfo

Opened WAD: C:/Users/maxic/Documents/GitHub/The-Dread-Spire--A-Quake-Multiplayer-Map/wads/prototype_1_2.wad
Opened WAD: C:/Users/maxic/Documents/GitHub/The-Dread-Spire--A-Quake-Multiplayer-Map/wads/id1.wad
Processing hull 0...
---- Brush_LoadEntity ----
          243 brushes
          651 planes
---- CSGFaces ----
         1781 brushfaces
         2466 csgfaces
         2230 mergedfaces
---- SolidBSP ----
         2331 split nodes
          700 solid leafs
         1624 empty leafs
            8 water leafs
            0 detail leafs
            0 detail illusionary leafs
            0 detail fence leafs
            0 illusionary visblocker leafs
         6375 leaffaces
         4878 nodefaces
---- Portalize ----
         1632 vis leafs
         1632 vis clusters
         4798 vis portals
---- FillOutside ----
          394 outleafs
---- MergeAll ----
         2248 mergefaces
---- SolidBSP ----
          981 split nodes
          305 solid leafs
          673 empty leafs
            4 water leafs
            0 detail leafs
            0 detail illusionary leafs
            0 detail fence leafs
            0 illusionary visblocker leafs
         4682 leaffaces
         2909 nodefaces
---- Portalize ----
          677 vis leafs
          677 vis clusters
         1701 vis portals
---- Tjunc ----
         2736 world edges
         9975 edge points
         2902 edges added by tjunctions
            0 faces added by tjunctions
---- MakeFaceEdges ----
---- GrowRegions ----
Processing hull 1...
Processing hull 2...
*** WARNING 16: Texture __TB_empty not found
---- WriteBSPFile ----
Wrote dreadspire.bsp
         1493 planes            29860
         4384 vertexes          52608
         1329 nodes             31896
          182 texinfo            7280
         3221 faces             64420
         3410 clipnodes         27280
         1010 leafs             28280
         5022 marksurfaces      10044
        15342 surfedges         61368
         7672 edges             30688
           13 textures         152856
              lightdata             0
              visdata               0
              entdata            5703

0.623 seconds elapsed
Peak memory usage: 22910480 (21.8M)
