---- qbsp / ericw-tools v0.18.1 ----
Input file: dreadspire.map
Output file: dreadspire.bsp

---- LoadMapFile ----
*** WARNING 05: No info_player_start entity in level
         2905 faces
          399 brushes
           93 entities
           19 unique texnames
          462 texinfo

Opened WAD: C:/Users/maxic/Documents/GitHub/The-Dread-Spire--A-Quake-Multiplayer-Map/wads/prototype_1_2.wad
Opened WAD: C:/Users/maxic/Documents/GitHub/The-Dread-Spire--A-Quake-Multiplayer-Map/wads/id1.wad
Processing hull 0...
---- Brush_LoadEntity ----
          243 brushes
          657 planes
---- CSGFaces ----
         1781 brushfaces
         2359 csgfaces
         2243 mergedfaces
---- SolidBSP ----
         2331 split nodes
          700 solid leafs
         1624 empty leafs
            8 water leafs
            0 detail leafs
            0 detail illusionary leafs
            0 detail fence leafs
            0 illusionary visblocker leafs
         6425 leaffaces
         4925 nodefaces
---- Portalize ----
         1632 vis leafs
         1632 vis clusters
         4800 vis portals
---- FillOutside ----
          394 outleafs
---- MergeAll ----
         2263 mergefaces
---- SolidBSP ----
          994 split nodes
          316 solid leafs
          675 empty leafs
            4 water leafs
            0 detail leafs
            0 detail illusionary leafs
            0 detail fence leafs
            0 illusionary visblocker leafs
         4802 leaffaces
         2957 nodefaces
---- Portalize ----
          679 vis leafs
          679 vis clusters
         1706 vis portals
---- Tjunc ----
         2736 world edges
        10122 edge points
         2959 edges added by tjunctions
            0 faces added by tjunctions
---- MakeFaceEdges ----
---- GrowRegions ----
Processing hull 1...
Processing hull 2...
*** WARNING 16: Texture __TB_empty not found
---- WriteBSPFile ----
Wrote dreadspire.bsp
         1501 planes            30020
         4462 vertexes          53544
         1366 nodes             32784
          298 texinfo           11920
         3269 faces             65380
         3496 clipnodes         27968
         1036 leafs             29008
         5142 marksurfaces      10284
        15594 surfedges         62376
         7798 edges             31192
           19 textures         185760
              lightdata             0
              visdata               0
              entdata            5871

0.715 seconds elapsed
Peak memory usage: 23185460 (22.1M)
