---- qbsp / ericw-tools v0.18.1 ----
Input file: dreadspire.map
Output file: dreadspire.bsp

---- LoadMapFile ----
*** WARNING 05: No info_player_start entity in level
         2803 faces
          382 brushes
           90 entities
           10 unique texnames
          266 texinfo

Opened WAD: C:/Users/maxic/Documents/GitHub/The-Dread-Spire--A-Quake-Multiplayer-Map/wads/prototype_1_2.wad
Processing hull 0...
---- Brush_LoadEntity ----
          234 brushes
          643 planes
---- CSGFaces ----
         1727 brushfaces
         2470 csgfaces
         2187 mergedfaces
---- SolidBSP ----
         2135 split nodes
          612 solid leafs
         1516 empty leafs
            8 water leafs
            0 detail leafs
            0 detail illusionary leafs
            0 detail fence leafs
            0 illusionary visblocker leafs
         6096 leaffaces
         4637 nodefaces
---- Portalize ----
         1524 vis leafs
         1524 vis clusters
         4470 vis portals
---- FillOutside ----
          314 outleafs
---- MergeAll ----
         2211 mergefaces
---- SolidBSP ----
          934 split nodes
          274 solid leafs
          657 empty leafs
            4 water leafs
            0 detail leafs
            0 detail illusionary leafs
            0 detail fence leafs
            0 illusionary visblocker leafs
         4772 leaffaces
         2912 nodefaces
---- Portalize ----
          661 vis leafs
          661 vis clusters
         1634 vis portals
---- Tjunc ----
         2703 world edges
         9926 edge points
         2920 edges added by tjunctions
            0 faces added by tjunctions
---- MakeFaceEdges ----
---- GrowRegions ----
Processing hull 1...
Processing hull 2...
*** WARNING 16: Texture __TB_empty not found
---- WriteBSPFile ----
Wrote dreadspire.bsp
         1493 planes            29860
         4392 vertexes          52704
         1282 nodes             30768
          145 texinfo            5800
         3224 faces             64480
         3365 clipnodes         26920
          994 leafs             27832
         5112 marksurfaces      10224
        15370 surfedges         61480
         7686 edges             30744
           10 textures         136404
              lightdata             0
              visdata               0
              entdata            5291

0.633 seconds elapsed
Peak memory usage: 22496552 (21.5M)
