---- qbsp / ericw-tools v0.18.1 ----
Input file: dreadspire.map
Output file: dreadspire.bsp

---- LoadMapFile ----
*** WARNING 05: No info_player_start entity in level
         3125 faces
          419 brushes
           76 entities
           27 unique texnames
          549 texinfo

Opened WAD: C:/Users/maxic/Documents/GitHub/The-Dread-Spire--A-Quake-Multiplayer-Map/wads/prototype_1_2.wad
Opened WAD: C:/Users/maxic/Documents/GitHub/The-Dread-Spire--A-Quake-Multiplayer-Map/wads/id1.wad
Processing hull 0...
---- Brush_LoadEntity ----
          267 brushes
          674 planes
---- CSGFaces ----
         2021 brushfaces
         2673 csgfaces
         2565 mergedfaces
---- SolidBSP ----
         2639 split nodes
          874 solid leafs
         1758 empty leafs
            8 water leafs
            0 detail leafs
            0 detail illusionary leafs
            0 detail fence leafs
            0 illusionary visblocker leafs
         6622 leaffaces
         5306 nodefaces
---- Portalize ----
         1766 vis leafs
         1766 vis clusters
         5330 vis portals
---- FillOutside ----
          479 outleafs
---- MergeAll ----
         2582 mergefaces
---- SolidBSP ----
         1153 split nodes
          339 solid leafs
          811 empty leafs
            4 water leafs
            0 detail leafs
            0 detail illusionary leafs
            0 detail fence leafs
            0 illusionary visblocker leafs
         4892 leaffaces
         3292 nodefaces
---- Portalize ----
          815 vis leafs
          815 vis clusters
         2294 vis portals
---- Tjunc ----
         3009 world edges
        11403 edge points
         3203 edges added by tjunctions
            0 faces added by tjunctions
---- MakeFaceEdges ----
---- GrowRegions ----
Processing hull 1...
*** WARNING 19: No entities in empty space -- no filling performed (hull 1)
Processing hull 2...
*** WARNING 19: No entities in empty space -- no filling performed (hull 2)
*** WARNING 16: Texture __TB_empty not found
---- WriteBSPFile ----
Wrote dreadspire.bsp
         1593 planes            31860
         4883 vertexes          58596
         1525 nodes             36600
          384 texinfo           15360
         3604 faces             72080
         5602 clipnodes         44816
         1172 leafs             32816
         5232 marksurfaces      10464
        17102 surfedges         68408
         8552 edges             34208
           27 textures         213312
              lightdata             0
              visdata               0
              entdata            4670

0.695 seconds elapsed
Peak memory usage: 25681396 (24.5M)
