---- qbsp / ericw-tools v0.18.1 ----
Input file: dreadspire.map
Output file: dreadspire.bsp

---- LoadMapFile ----
*** WARNING 05: No info_player_start entity in level
         2857 faces
          391 brushes
           96 entities
           13 unique texnames
          314 texinfo

Opened WAD: C:/Users/maxic/Documents/GitHub/The-Dread-Spire--A-Quake-Multiplayer-Map/wads/prototype_1_2.wad
Opened WAD: C:/Users/maxic/Documents/GitHub/The-Dread-Spire--A-Quake-Multiplayer-Map/wads/id1.wad
Processing hull 0...
---- Brush_LoadEntity ----
          243 brushes
          651 planes
---- CSGFaces ----
         1781 brushfaces
         2553 csgfaces
         2232 mergedfaces
---- SolidBSP ----
         2331 split nodes
          700 solid leafs
         1624 empty leafs
            8 water leafs
            0 detail leafs
            0 detail illusionary leafs
            0 detail fence leafs
            0 illusionary visblocker leafs
         6375 leaffaces
         4878 nodefaces
---- Portalize ----
         1632 vis leafs
         1632 vis clusters
         4800 vis portals
---- FillOutside ----
          394 outleafs
---- MergeAll ----
         2249 mergefaces
---- SolidBSP ----
          980 split nodes
          304 solid leafs
          673 empty leafs
            4 water leafs
            0 detail leafs
            0 detail illusionary leafs
            0 detail fence leafs
            0 illusionary visblocker leafs
         4678 leaffaces
         2906 nodefaces
---- Portalize ----
          677 vis leafs
          677 vis clusters
         1701 vis portals
---- Tjunc ----
         2731 world edges
         9973 edge points
         2915 edges added by tjunctions
            0 faces added by tjunctions
---- MakeFaceEdges ----
---- GrowRegions ----
Processing hull 1...
Processing hull 2...
*** WARNING 16: Texture __TB_empty not found
---- WriteBSPFile ----
Wrote dreadspire.bsp
         1493 planes            29860
         4387 vertexes          52644
         1328 nodes             31872
          165 texinfo            6600
         3218 faces             64360
         3411 clipnodes         27288
         1010 leafs             28280
         5018 marksurfaces      10036
        15342 surfedges         61368
         7672 edges             30688
           13 textures         152856
              lightdata             0
              visdata               0
              entdata            5703

0.637 seconds elapsed
Peak memory usage: 22895344 (21.8M)
