---- qbsp / ericw-tools v0.18.1 ----
Input file: zombie_map.map
Output file: zombie_map.bsp

---- LoadMapFile ----
*** WARNING 06: No info_player_deathmatch entities in level
           48 faces
            8 brushes
            9 entities
            4 unique texnames
           15 texinfo

Opened WAD: C:/QuakeDev/wads/rogue.wad
Processing hull 0...
---- Brush_LoadEntity ----
            8 brushes
           18 planes
---- CSGFaces ----
           48 brushfaces
           52 csgfaces
           52 mergedfaces
---- SolidBSP ----
           72 split nodes
           23 solid leafs
           50 empty leafs
            0 water leafs
            0 detail leafs
            0 detail illusionary leafs
            0 detail fence leafs
            0 illusionary visblocker leafs
          198 leaffaces
          196 nodefaces
---- Portalize ----
           50 vis leafs
           50 vis clusters
          101 vis portals
---- FillOutside ----
           43 outleafs
---- MergeAll ----
           22 mergefaces
---- SolidBSP ----
           14 split nodes
           10 solid leafs
            5 empty leafs
            0 water leafs
            0 detail leafs
            0 detail illusionary leafs
            0 detail fence leafs
            0 illusionary visblocker leafs
           74 leaffaces
           64 nodefaces
---- Portalize ----
            5 vis leafs
            5 vis clusters
            6 vis portals
---- Tjunc ----
           56 world edges
          208 edge points
           40 edges added by tjunctions
            0 faces added by tjunctions
---- MakeFaceEdges ----
---- GrowRegions ----
Processing hull 1...
Processing hull 2...
*** WARNING 19: No entities in empty space -- no filling performed (hull 2)
---- WriteBSPFile ----
Wrote zombie_map.bsp
           44 planes              880
           82 vertexes            984
           14 nodes               336
            6 texinfo             240
           64 faces              1280
          115 clipnodes           920
            6 leafs               168
           74 marksurfaces        148
          296 surfedges          1184
          149 edges               596
            4 textures          38260
              lightdata             0
              visdata               0
              entdata             570

0.081 seconds elapsed
Peak memory usage: 683920 (0.7M)
